electric-grid/physical/reference/wscc-9bus/models/wscc-9-bus.epc
title
!
comments
!
solution parameters
tap    1    tcul  enabled/disabled
phas   1    ps    enabled/disabled
area   1    area  enabled/disabled
svd    1    svd   enabled/disabled
dctap  1    dc    enabled/disabled
gcd    1    gcd   enabled/disabled
jump  0.000290    jumper threshold
toler   0.1000    newton tolerance
sbase 100.0000    system mva base
!
bus data  [9]               ty  vsched   volt     angle    ar zone  vmax   vmin   date_in date_out pid L own st  latitude  longitude island    sdmon   vmax1      vmin1      dvmax
      1 "Bus1        "  16.5000 :  0 1.04000 1.040000   0.00000   1    1 1.1000 0.9000   400101   391231   0 0   1 0    0.00000    0.00000 0    0.00000    0.00000    0.00000
      2 "Bus 2       "  18.0000 :  2 1.02500 1.025000   9.35067   1    1 1.1000 0.9000   400101   391231   0 0   1 0    0.00000    0.00000 0    0.00000    0.00000    0.00000
      3 "Bus 3       "  13.8000 :  2 1.02500 1.025000   5.14198   1    1 1.1000 0.9000   400101   391231   0 0   1 0    0.00000    0.00000 0    0.00000    0.00000    0.00000
      4 "Bus 4       " 230.0000 :  1 1.025307 1.025307  -2.21741   1    1 1.1000 0.9000   400101   391231   0 0   1 0    0.00000    0.00000 0    0.00000    0.00000    0.00000
      5 "Bus 5       " 230.0000 :  1 0.999723 0.999723  -3.68015   1    1 1.1000 0.9000   400101   391231   0 0   1 0    0.00000    0.00000 0    0.00000    0.00000    0.00000
      6 "Bus 6       " 230.0000 :  1 1.012255 1.012255  -3.56656   1    1 1.1000 0.9000   400101   391231   0 0   1 0    0.00000    0.00000 0    0.00000    0.00000    0.00000
      7 "Bus 7       " 230.0000 :  1 1.026832 1.026832   3.79614   1    1 1.1000 0.9000   400101   391231   0 0   1 0    0.00000    0.00000 0    0.00000    0.00000    0.00000
      8 "Bus 8       " 230.0000 :  1 1.017266 1.017266   1.33727   1    1 1.1000 0.9000   400101   391231   0 0   1 0    0.00000    0.00000 0    0.00000    0.00000    0.00000
      9 "Bus 9       " 230.0000 :  1 1.032689 1.032689   2.44482   1    1 1.1000 0.9000   400101   391231   0 0   1 0    0.00000    0.00000 0    0.00000    0.00000    0.00000
branch data  [    6]                                          ck  se  ------------long_id_------------    st resist   react   charge   rate1  rate2  rate3  rate4 aloss  lngth 
      5 "Bus 5       " 230.00       4 "Bus 4       " 230.00  "1 "  1 "                                " :  1  0.010000  0.068000  0.176000    0.0    0.0    0.0    0.0 0.000    1.0 /
   1    1  0.000000  0.000000  1.000000   400101   391231   0 1  0    0.0    0.0    0.0    0.0   1 1.000   0 0.000   0 0.000   0 0.000   0 0.000   0 0.000   0 0.000   0 0.000  0 0 
      6 "Bus 6       " 230.00       4 "Bus 4       " 230.00  "1 "  1 "                                " :  1  0.017000  0.092000  0.158000    0.0    0.0    0.0    0.0 0.000    1.0 /
   1    1  0.000000  0.000000  1.000000   400101   391231   0 1  0    0.0    0.0    0.0    0.0   1 1.000   0 0.000   0 0.000   0 0.000   0 0.000   0 0.000   0 0.000   0 0.000  0 0 
      7 "Bus 7       " 230.00       5 "Bus 5       " 230.00  "1 "  1 "                                " :  1  0.032000  0.161000  0.306000    0.0    0.0    0.0    0.0 0.000    1.0 /
   1    1  0.000000  0.000000  1.000000   400101   391231   0 1  0    0.0    0.0    0.0    0.0   1 1.000   0 0.000   0 0.000   0 0.000   0 0.000   0 0.000   0 0.000   0 0.000  0 0 
      7 "Bus 7       " 230.00       8 "Bus 8       " 230.00  "1 "  1 "                                " :  1  0.008500  0.057600  0.149000    0.0    0.0    0.0    0.0 0.000    1.0 /
   1    1  0.000000  0.000000  1.000000   400101   391231   0 1  0    0.0    0.0    0.0    0.0   1 1.000   0 0.000   0 0.000   0 0.000   0 0.000   0 0.000   0 0.000   0 0.000  0 0 
      8 "Bus 8       " 230.00       9 "Bus 9       " 230.00  "1 "  1 "                                " :  1  0.011900  0.100800  0.209000    0.0    0.0    0.0    0.0 0.000    1.0 /
   1    1  0.000000  0.000000  1.000000   400101   391231   0 1  0    0.0    0.0    0.0    0.0   1 1.000   0 0.000   0 0.000   0 0.000   0 0.000   0 0.000   0 0.000   0 0.000  0 0 
      9 "Bus 9       " 230.00       6 "Bus 6       " 230.00  "1 "  1 "                                " :  1  0.039000  0.173800  0.358000    0.0    0.0    0.0    0.0 0.000    1.0 /
   1    1  0.000000  0.000000  1.000000   400101   391231   0 1  0    0.0    0.0    0.0    0.0   1 1.000   0 0.000   0 0.000   0 0.000   0 0.000   0 0.000   0 0.000   0 0.000  0 0 
transformer data  [   3]                                     ck   ------------long_id_------------     st ty --no---    reg_name          zt         int                              tert                   ar zone  tbase   ps_r    ps_x    pt_r    pt_x    ts_r    ts_x
      2 "Bus 2       "  18.00       7 "Bus 7       " 230.00  "1 " "                                " :  1  1       2 "Bus 2       "  18.00  0       0 "            "   0.00       0 "            "   0.00    1    1 100.000000 0.000000E+000 6.250000E-002 0.000000E+000 0.000000E+000 0.000000E+000 0.000000E+000 /
 18.000000 230.000000  0.000000  0.000000 0.000000E+000 0.000000E+000    0.0    0.0    0.0    0.0 0.000  1.100000  0.900000  1.000000  0.990000  0.006250  1.000000  1.000000  1.000000  1.000000   400101   391231   0 1     0.0    0.0    0.0    0.0 /
   1 1.000   0 0.000   0 0.000   0 0.000   0 0.000   0 0.000   0 0.000   0 0.000  0 /
   0.000000   0.000000  0.000000  0.000000     0.0    0.0    0.0     0.0    0.0    0.0 0.000 0.000  0  0  0 0.0000 0.0000 0 
      4 "Bus 4       " 230.00       1 "Bus1        "  16.50  "1 " "                                " :  1  1       0 "            "   0.00  0       0 "            "   0.00       0 "            "   0.00    1    1 100.000000 0.000000E+000 5.760000E-002 0.000000E+000 0.000000E+000 0.000000E+000 0.000000E+000 /
 230.000000 16.500000  0.000000  0.000000 0.000000E+000 0.000000E+000    0.0    0.0    0.0    0.0 0.000  1.500000  0.510000  1.500000  0.510000 -0.006250  1.000000  1.000000  1.000000  1.000000   400101   391231   0 1     0.0    0.0    0.0    0.0 /
   1 1.000   0 0.000   0 0.000   0 0.000   0 0.000   0 0.000   0 0.000   0 0.000  0 /
   0.000000   0.000000  0.000000  0.000000     0.0    0.0    0.0     0.0    0.0    0.0 0.000 0.000  0  0  0 0.0000 0.0000 0 
      9 "Bus 9       " 230.00       3 "Bus 3       "  13.80  "1 " "                                " :  1  1       9 "Bus 9       " 230.00  0       0 "            "   0.00       0 "            "   0.00    1    1 100.000000 0.000000E+000 5.860000E-002 0.000000E+000 0.000000E+000 0.000000E+000 0.000000E+000 /
 230.000000 13.800000  0.000000  0.000000 0.000000E+000 0.000000E+000    0.0    0.0    0.0    0.0 0.000  1.100000  0.900000  1.000000  0.990000  0.006250  1.000000  1.000000  1.000000  1.000000   400101   391231   0 1     0.0    0.0    0.0    0.0 /
   1 1.000   0 0.000   0 0.000   0 0.000   0 0.000   0 0.000   0 0.000   0 0.000  0 /
   0.000000   0.000000  0.000000  0.000000     0.0    0.0    0.0     0.0    0.0    0.0 0.000 0.000  0  0  0 0.0000 0.0000 0 
generator data  [   3]         id   ------------long_id_------------    st ---no--     reg_name           prf  qrf  ar zone   pgen   pmax   pmin   qgen   qmax   qmin   mbase  cmp_r cmp_x gen_r gen_x           hbus                         tbus                date_in date_out pid N
      1 "Bus1        "  16.50 "1 " "                                " :  1       1 "Bus1        "  16.50  0.000000  1.000000   1    1  71.627498 450.000000   0.000000 27.914819 9900.000000 -9900.000000 500.0000 0.000 0.000 0.000 1.000      -1 "            "   0.00      -1 "            "   0.00    400101   391231   0 0 /
 0.0000 0.0000 1.0000   1 1.000   0 0.000   0 0.000   0 0.000    0 0.000    0 0.000    0 0.000    0 0.000    0   0   0   0   0   0   0    0.0 0 0  1.000000
      2 "Bus 2       "  18.00 "1 " "                                " :  1       2 "Bus 2       "  18.00  0.000000  1.000000   1    1 163.000000 240.000010   0.000000  4.903169 9900.000000 -9900.000000 250.0000 0.000 0.000 0.000 1.000      -1 "            "   0.00      -1 "            "   0.00    400101   391231   0 0 /
 0.0000 0.0000 1.0000   1 1.000   0 0.000   0 0.000   0 0.000    0 0.000    0 0.000    0 0.000    0 0.000    0   0   0   0   0   0   0    0.0 0 0  1.000000
      3 "Bus 3       "  13.80 "1 " "                                " :  1       3 "Bus 3       "  13.80  0.000000  1.000000   1    1  85.000002  89.999998   0.000000 -11.448775 9900.000000 -9900.000000 100.0000 0.000 0.000 0.000 1.000      -1 "            "   0.00      -1 "            "   0.00    400101   391231   0 0 /
 0.0000 0.0000 1.0000   1 1.000   0 0.000   0 0.000   0 0.000    0 0.000    0 0.000    0 0.000    0 0.000    0   0   0   0   0   0   0    0.0 0 0  1.000000
load data  [   3]             id   ------------long_id_------------     st      mw      mvar    mw_i    mvar_i  mw_z      mvar_z  ar zone  date_in date_out pid N own M nonc  thr_bus flg
      5 "Bus 5       " 230.00 "1 " "                                "  :  1 125.000000 50.000000 0.000000 0.000000 0.000000 0.000000   1    1   400101   391231   0 0   1 0    0       0 "            "   0.00   0
      6 "Bus 6       " 230.00 "1 " "                                "  :  1 89.999998 30.000001 0.000000 0.000000 0.000000 0.000000   1    1   400101   391231   0 0   1 0    0       0 "            "   0.00   0
      8 "Bus 8       " 230.00 "1 " "                                "  :  1 100.000000 34.999999 0.000000 0.000000 0.000000 0.000000   1    1   400101   391231   0 0   1 0    0       0 "            "   0.00   0
shunt data  [   0]             id                                 ck  se  ------------long_id_------------     st ar  zone    pu_mw  pu_mvar  date_in date_out pid N own part1 own part2 own part3 own part4 --num-- ----name----  --kv-- M --num--  ----name----  --kv--  ID  st
svd data  [   0]               id   ------------long_id_------------    st ty --no---     reg_name           ar zone      g      b  min_c  max_c  vband   bmin   bmax  date_in date_out pid N own part1 own part2 own part3 own part4 M st
area data  [  1]                            swing  desired    tol      pnet     qnet
    1 "1                               "       0    0.000    1.000   -0.000   -0.000 0
zone data  [   1]                            pnet     qnet
    1 "1                               "   -0.000   -0.000 0
interface data  [   0]                      pnet     qnet   -rate1- -rate2- -rate3- -rate4- -rate5- -rate6- -rate7- -rate8-
interface branch data  [    0]                              ck      -i_no-  part_fac  
dc bus data  [ 0]             ty ar  zone   vsched     dc_volt  date_in date_out pid own
dc converter data  [ 0]                               id   long_id_    st ty md nb fg  --no---           reg   ar zone  date_in date_out
z table data  [ 0]  -tap2 fact2 -tap3 fact3 -tap4 fact4 -tap5 fact5 -tap6 fact6 -tap7 fact7 -tap8 fact8 -tap9 fact9 tap10 fac10 tap11 fac11
gcd data  [   0]
transaction data  [    0]              st    sch_mw   sch_mvar  flag stn pid         transaction name
owner data  [    1]    owner name           s name       net_mw   net_mvar     sch_mw   sch_mvar  ar
       1 "1                               " "    " :     0.000      0.000      0.000      0.000   0 0 


qtable data     [   0]   id     p[0]   qmx[0]  qmn[0]  ....
end
